%NProcShared=12
#n B3LYP/6-31G(d) Opt Freq TD=nstate=12

 8cpp

0 1
C         -4.78183        2.84133        0.05597
C         -5.36215        1.47725       -0.05541
C         -5.83150        0.75309        1.05790
C         -5.84514       -0.63940        1.05748
C         -5.38973       -1.37212       -0.05598
C         -4.83618       -2.74724        0.05540
C         -4.15963       -3.10536        1.23534
C         -3.18641       -4.09810        1.23559
C         -2.84133       -4.78182        0.05585
C         -3.68097       -4.58517       -1.05790
C         -4.65592       -3.59086       -1.05810
C         -5.14913       -0.64462       -1.23539
C         -5.13573        0.74550       -1.23505
C         -4.09806        3.18638        1.23569
C         -3.10532        4.15960        1.23542
C         -2.74724        4.83617        0.05548
C         -1.37212        5.38971       -0.05596
C         -0.64466        5.14909       -1.23539
C          0.74546        5.13568       -1.23510
C          1.47726        5.36214       -0.05550
C          2.84133        4.78182        0.05585
C          3.68097        4.58517       -1.05790
C          4.65592        3.59086       -1.05810
C          3.18641        4.09810        1.23559
C          4.15963        3.10536        1.23534
C          4.83618        2.74724        0.05540
C          5.38973        1.37212       -0.05598
C          5.14913        0.64462       -1.23539
C          5.13573       -0.74550       -1.23505
C          5.36215       -1.47725       -0.05541
C          4.78183       -2.84133        0.05597
C          4.58523       -3.68100       -1.05777
C          3.59092       -4.65594       -1.05799
C          2.74724       -4.83617        0.05548
C          1.37212       -5.38971       -0.05596
C          0.64466       -5.14909       -1.23539
C         -0.74546       -5.13568       -1.23510
C         -1.47726       -5.36214       -0.05550
C         -0.75314       -5.83151        1.05783
C          0.63935       -5.84514        1.05746
C          3.10532       -4.15960        1.23542
C          4.09806       -3.18638        1.23569
C          5.83150       -0.75309        1.05790
C          5.84514        0.63940        1.05748
C          0.75314        5.83151        1.05783
C         -0.63935        5.84514        1.05746
C         -3.59092        4.65594       -1.05799
C         -4.58523        3.68100       -1.05777
H         -6.11295        1.28182        1.96497
H         -6.13681       -1.16309        1.96425
H         -4.27868       -2.49693        2.12674
H         -2.58088       -4.22911        2.12728
H         -3.51676       -5.16124       -1.96494
H         -5.22853       -3.41555       -1.96524
H         -4.81238       -1.16525       -2.12669
H         -4.78912        1.25994       -2.12618
H         -4.22902        2.58083        2.12737
H         -2.49685        4.27861        2.12679
H         -1.16532        4.81233       -2.12667
H          1.25986        4.78904       -2.12624
H          3.51676        5.16124       -1.96494
H          5.22853        3.41555       -1.96524
H          2.58088        4.22911        2.12728
H          4.27868        2.49693        2.12674
H          4.81238        1.16525       -2.12669
H          4.78912       -1.25994       -2.12618
H          5.16134       -3.51682       -1.96478
H          3.41564       -5.22858       -1.96511
H          1.16532       -4.81233       -2.12667
H         -1.25986       -4.78904       -2.12624
H         -1.28190       -6.11298        1.96488
H          1.16301       -6.13685        1.96424
H          2.49685       -4.27861        2.12679
H          4.22902       -2.58083        2.12737
H          6.11295       -1.28182        1.96497
H          6.13681        1.16309        1.96425
H          1.28190        6.11298        1.96488
H         -1.16301        6.13685        1.96424
H         -3.41564        5.22858       -1.96511
H         -5.16134        3.51682       -1.96478

